33 
smiles:  N[C@@](C(CCC1)C1(CC2)C34C2=CC=C4)([H])C3=O 
N          1.22650       -0.13809       -0.14720 
C          0.72543        1.18241       -0.55058 
C          0.19143        1.54966       -1.93233 
C         -1.21803        2.08532       -1.36485 
C         -1.75989        2.44887       -2.70640 
C         -0.53383        2.84076       -3.60910 
C          0.86630        2.66654       -2.86905 
C          2.34797        3.05457       -3.57639 
C          3.30256        3.45554       -2.40197 
C          1.03921        3.50933       -1.60979 
C          2.22685        4.30181       -1.89148 
C          2.02821        5.61743       -1.99568 
C          0.61006        5.83821       -1.71404 
C          0.04922        4.65097       -1.53892 
H         -0.14988        0.98849        0.10029 
C          1.42928        2.52068       -0.47620 
O          2.03519        2.83676        0.50202 
H          0.70711       -0.95158       -0.64378 
H          2.29071       -0.21567       -0.20466 
H          0.02161        0.65028       -2.54257 
H         -1.91176        2.69800       -0.75618 
H         -0.75300        2.76650       -0.64544 
H         -2.67724        3.06051       -2.73318 
H         -2.08994        1.39911       -2.73841 
H         -0.72513        3.85773       -3.97310 
H         -0.68741        2.11726       -4.42673 
H          3.26788        2.52390       -3.89176 
H          2.27477        3.73894       -4.45880 
H          4.24472        4.03165       -2.41309 
H          3.48075        2.49488       -1.87761 
H          2.70275        6.37687       -2.37487 
H          0.00650        6.74102       -1.69378 
H         -1.03345        4.67242       -1.43175 
 
