33
Newloserine
C         46.88178       -9.24670        3.33213
C         46.73731      -10.43190        4.33246
C         46.96518       -9.96306        5.74703
C         46.41419       -8.53901        5.64913
C         46.72972       -7.97728        4.22120
C         44.88319       -8.48163        5.71070
C         44.59932       -7.11590        5.12042
C         45.54897       -7.02410        3.92237
C         48.09941       -7.23285        4.22714
C         49.07915       -7.98744        3.33206
C         48.29672       -9.13531        2.83098
C         48.45268       -9.81435        1.68409
C         47.13291      -10.21215        1.24513
C         46.19626       -9.71140        2.07963
O         46.50862      -11.59845        4.05744
N         48.39944      -10.06456        6.03804
H         46.39289      -10.57659        6.44828
H         46.81842       -7.90028        6.44701
H         44.50335       -8.58507        6.73469
H         44.41355       -9.25878        5.09853
H         43.54749       -6.99006        4.82998
H         44.84177       -6.34005        5.85304
H         45.02940       -7.30486        3.00115
H         45.85979       -5.98118        3.80569
H         48.00674       -6.19930        3.87992
H         48.51610       -7.15420        5.23625
H         49.97873       -8.28742        3.87619
H         49.37862       -7.33768        2.50083
H         49.32614       -9.81742        1.05135
H         46.96020      -10.79402        0.35185
H         45.13670       -9.87316        1.96541
H         48.91496       -9.26285        5.68392
H         48.77472      -10.86845        5.51884