Newloserine 
__Jmol-14_06042213273D 1   1.00000     0.00000     0
Jmol version 14.6.4_2016.10.26  2016-10-26 12:26 EXTRACT: ({0:32})
 33 36  0  0  0  0              1 V2000
   3.70461   2.27127   0.05793 C   0  0  0  0  0  0
   3.55045   3.58156   0.78188 C   0  0  0  0  0  0
   2.63194   4.47000  -0.09345 C   0  0  0  0  0  0
   1.74674   3.40305  -0.84810 C   0  0  0  0  0  0
   2.21971   2.05948  -0.26208 C   0  0  0  0  0  0
   0.23173   3.47539  -0.58951 C   0  0  0  0  0  0
  -0.10531   2.30957   0.31317 C   0  0  0  0  0  0
   1.21709   1.91191   0.93159 C   0  0  0  0  0  0
   2.25799   0.69951  -0.97238 C   0  0  0  0  0  0
   3.14695  -0.13546  -0.01149 C   0  0  0  0  0  0
   4.16758   0.89301   0.40427 C   0  0  0  0  0  0
   5.45403   0.72360   0.09733 C   0  0  0  0  0  0
   5.82567   1.80179  -0.76576 C   0  0  0  0  0  0
   4.78856   2.61750  -0.93926 C   0  0  0  0  0  0
   4.06465   3.88304   1.85193 O   0  0  0  0  0  0
   3.27553   4.96079  -0.82778 H   0  0  0  0  0  0
   1.99584   5.56316   0.66951 N   0  0  0  0  0  0
   1.93717   3.46783  -1.92758 H   0  0  0  0  0  0
  -0.08879   4.41405  -0.12758 H   0  0  0  0  0  0
  -0.33211   3.40121  -1.52651 H   0  0  0  0  0  0
  -0.51806   1.48442  -0.28123 H   0  0  0  0  0  0
  -0.85695   2.56727   1.06808 H   0  0  0  0  0  0
   1.13808   0.91243   1.36287 H   0  0  0  0  0  0
   1.44329   2.58226   1.76450 H   0  0  0  0  0  0
   1.28030   0.23654  -1.11645 H   0  0  0  0  0  0
   2.71930   0.78521  -1.96649 H   0  0  0  0  0  0
   3.58080  -0.99270  -0.53525 H   0  0  0  0  0  0
   2.60733  -0.51948   0.85615 H   0  0  0  0  0  0
   5.94683  -0.24186   0.00173 H   0  0  0  0  0  0
   6.76067   1.83447  -1.32045 H   0  0  0  0  0  0
   4.80247   3.45749  -1.62844 H   0  0  0  0  0  0
   1.55666   5.21651   1.51978 H   0  0  0  0  0  0
   1.28840   6.04620   0.11686 H   0  0  0  0  0  0
  1  2  1  0  0  0
  2  3  1  0  0  0
  3  4  1  0  0  0
  4  5  1  0  0  0
  5  1  1  0  0  0
  6  7  1  0  0  0
  7  8  1  0  0  0
  5  8  1  0  0  0
  4  6  1  0  0  0
  9 10  1  0  0  0
 10 11  1  0  0  0
  1 11  1  0  0  0
  5  9  1  0  0  0
 12 13  1  0  0  0
 13 14  2  0  0  0
  1 14  1  0  0  0
 11 12  2  0  0  0
  2 15  2  0  0  0
  3 16  1  0  0  0
  3 17  1  0  0  0
 18  4  1  0  0  0
 19  6  1  0  0  0
 20  6  1  0  0  0
 21  7  1  0  0  0
 22  7  1  0  0  0
 23  8  1  0  0  0
 24  8  1  0  0  0
 25  9  1  0  0  0
 26  9  1  0  0  0
 27 10  1  0  0  0
 28 10  1  0  0  0
 29 12  1  0  0  0
 30 13  1  0  0  0
 31 14  1  0  0  0
 32 17  1  0  0  0
 33 17  1  0  0  0
M  END
